.global vdd gnd

.subckt AND2X1 Y B vdd gnd A
M0 a_2_6# A vdd vdd pmos w=0.5u l=0.05u
+ ad=0p pd=0u as=0p ps=0u 
M1 vdd B a_2_6# vdd pmos w=0.5u l=0.05u
+ ad=0p pd=0u as=0p ps=0u 
M2 Y a_2_6# vdd vdd pmos w=0.5u l=0.05u
+ ad=0p pd=0u as=0p ps=0u 
M3 a_9_6# A a_2_6# gnd nmos w=0.5u l=0.05u
+ ad=0p pd=0u as=0p ps=0u 
M4 gnd B a_9_6# gnd nmos w=0.5u l=0.05u
+ ad=0p pd=0u as=0p ps=0u 
M5 Y a_2_6# gnd gnd nmos w=0.25u l=0.05u
+ ad=0p pd=0u as=0p ps=0u 
.ends AND2X1

.subckt AND2X2 vdd gnd A B Y
M0 a_2_6# A vdd vdd pmos w=0.5u l=0.05u
+ ad=0p pd=0u as=0p ps=0u 
M1 vdd B a_2_6# vdd pmos w=0.5u l=0.05u
+ ad=0p pd=0u as=0p ps=0u 
M2 Y a_2_6# vdd vdd pmos w=1u l=0.05u
+ ad=0p pd=0u as=0p ps=0u 
M3 a_9_6# A a_2_6# gnd nmos w=0.5u l=0.05u
+ ad=0p pd=0u as=0p ps=0u 
M4 gnd B a_9_6# gnd nmos w=0.5u l=0.05u
+ ad=0p pd=0u as=0p ps=0u 
M5 Y a_2_6# gnd gnd nmos w=0.5u l=0.05u
+ ad=0p pd=0u as=0p ps=0u 
.ends AND2X2

.subckt AOI21X1 gnd vdd A B Y C
M0 a_2_54# A vdd vdd pmos w=1u l=0.05u
+ ad=0p pd=0u as=0p ps=0u 
M1 vdd B a_2_54# vdd pmos w=1u l=0.05u
+ ad=0p pd=0u as=0p ps=0u 
M2 a_2_54# C Y vdd pmos w=1u l=0.05u
+ ad=0p pd=0u as=0p ps=0u 
M3 gnd A a_12_6# gnd nmos w=0.5u l=0.05u
+ ad=0p pd=0u as=0p ps=0u 
M4 a_12_6# B Y gnd nmos w=0.5u l=0.05u
+ ad=0p pd=0u as=0p ps=0u 
M5 Y C gnd gnd nmos w=0.25u l=0.05u
+ ad=0p pd=0u as=0p ps=0u 
.ends AOI21X1

.subckt AOI22X1 gnd vdd C D Y A B
M0 a_2_54# A vdd vdd pmos w=1u l=0.05u
+ ad=0p pd=0u as=0p ps=0u 
M1 vdd B a_2_54# vdd pmos w=1u l=0.05u
+ ad=0p pd=0u as=0p ps=0u 
M2 a_2_54# D Y vdd pmos w=1u l=0.05u
+ ad=0p pd=0u as=0p ps=0u 
M3 Y C a_2_54# vdd pmos w=1u l=0.05u
+ ad=0p pd=0u as=0p ps=0u 
M4 gnd A a_11_6# gnd nmos w=0.5u l=0.05u
+ ad=0p pd=0u as=0p ps=0u 
M5 a_11_6# B Y gnd nmos w=0.5u l=0.05u
+ ad=0p pd=0u as=0p ps=0u 
M6 Y D a_28_6# gnd nmos w=0.5u l=0.05u
+ ad=0p pd=0u as=0p ps=0u 
M7 a_28_6# C a_28_6# gnd nmos w=0.5u l=0.05u
+ ad=0p pd=0u as=0p ps=0u 
.ends AOI22X1

.SUBCKT ASYNC_DFFHX1 CLK D QN RESET SET VDD GND
MM43 PD3 SET GND GND NMOS W=0.5U L=0.05U
+ AD=0P PD=0U AS=0P PS=0U 
MM24 QN SH GND GND NMOS W=0.5U L=0.05U
+ AD=0P PD=0U AS=0P PS=0U 
MM29 SS SH GND GND NMOS W=0.5U L=0.05U
+ AD=0P PD=0U AS=0P PS=0U 
MM23 CLKB CLKN GND GND NMOS W=0.5U L=0.05U
+ AD=0P PD=0U AS=0P PS=0U 
MM20 CLKN CLK GND GND NMOS W=0.5U L=0.05U
+ AD=0P PD=0U AS=0P PS=0U 
MM44 SS RESET GND GND NMOS W=0.5U L=0.05U
+ AD=0P PD=0U AS=0P PS=0U 
MM34 SH CLKN PD3 GND NMOS W=0.5U L=0.05U
+ AD=0P PD=0U AS=0P PS=0U 
MM48 NET020 RESET GND GND NMOS W=0.5U L=0.05U
+ AD=0P PD=0U AS=0P PS=0U 
MM12 MS CLKB SH GND NMOS W=0.5U L=0.05U
+ AD=0P PD=0U AS=0P PS=0U 
MM33 PD3 SS GND GND NMOS W=0.5U L=0.05U
+ AD=0P PD=0U AS=0P PS=0U 
MM9 MH CLKB NET020 GND NMOS W=0.5U L=0.05U
+ AD=0P PD=0U AS=0P PS=0U 
MM8 NET020 MS GND GND NMOS W=0.5U L=0.05U
+ AD=0P PD=0U AS=0P PS=0U 
MM6 MS MH GND GND NMOS W=0.5U L=0.05U
+ AD=0P PD=0U AS=0P PS=0U 
MM5 PD1 D GND GND NMOS W=0.5U L=0.05U
+ AD=0P PD=0U AS=0P PS=0U 
MM4 MH CLKN PD1 GND NMOS W=0.5U L=0.05U
+ AD=0P PD=0U AS=0P PS=0U 
MM47 MS SET GND GND NMOS W=0.5U L=0.05U
+ AD=0P PD=0U AS=0P PS=0U 
MM25 QN SH VDD VDD PMOS W=0.5U L=0.05U
+ AD=0P PD=0U AS=0P PS=0U 
MM28 SS SH NET076 VDD PMOS W=0.5U L=0.05U
+ AD=0P PD=0U AS=0P PS=0U 
MM22 CLKB CLKN VDD VDD PMOS W=0.5U L=0.05U
+ AD=0P PD=0U AS=0P PS=0U 
MM45 NET076 RESET VDD VDD PMOS W=0.5U L=0.05U
+ AD=0P PD=0U AS=0P PS=0U 
MM46 NET079 SET VDD VDD PMOS W=0.5U L=0.05U
+ AD=0P PD=0U AS=0P PS=0U 
MM21 CLKN CLK VDD VDD PMOS W=0.5U L=0.05U
+ AD=0P PD=0U AS=0P PS=0U 
MM37 PD2 SS NET077 VDD PMOS W=0.5U L=0.05U
+ AD=0P PD=0U AS=0P PS=0U 
MM35 SH CLKB PD2 VDD PMOS W=0.5U L=0.05U
+ AD=0P PD=0U AS=0P PS=0U 
MM49 NET078 RESET VDD VDD PMOS W=0.5U L=0.05U
+ AD=0P PD=0U AS=0P PS=0U 
MM13 MS CLKN SH VDD PMOS W=0.5U L=0.05U
+ AD=0P PD=0U AS=0P PS=0U 
MM11 NET051 MS NET078 VDD PMOS W=0.5U L=0.05U
+ AD=0P PD=0U AS=0P PS=0U 
MM10 MH CLKN NET051 VDD PMOS W=0.5U L=0.05U
+ AD=0P PD=0U AS=0P PS=0U 
MM7 MS MH NET079 VDD PMOS W=0.5U L=0.05U
+ AD=0P PD=0U AS=0P PS=0U 
MM42 NET077 SET VDD VDD PMOS W=0.5U L=0.05U
+ AD=0P PD=0U AS=0P PS=0U 
MM1 MH CLKB PU1 VDD PMOS W=0.5U L=0.05U
+ AD=0P PD=0U AS=0P PS=0U 
MM3 PU1 D VDD VDD PMOS W=0.5U L=0.05U
+ AD=0P PD=0U AS=0P PS=0U 
.ENDS ASYNC_DFFHX1

.subckt BUFX2 vdd gnd A Y
M0 vdd A a_2_6# vdd pmos w=0.5u l=0.05u
+ ad=0p pd=0u as=0p ps=0u 
M1 Y a_2_6# vdd vdd pmos w=1u l=0.05u
+ ad=0p pd=0u as=0p ps=0u 
M2 gnd A a_2_6# gnd nmos w=0.25u l=0.05u
+ ad=0p pd=0u as=0p ps=0u 
M3 Y a_2_6# gnd gnd nmos w=0.5u l=0.05u
+ ad=0p pd=0u as=0p ps=0u 
.ends BUFX2

.subckt BUFX4 vdd gnd A Y
M0 vdd A a_2_6# vdd pmos w=0.75u l=0.05u
+ ad=0p pd=0u as=0p ps=0u 
M1 Y a_2_6# vdd vdd pmos w=1u l=0.05u
+ ad=0p pd=0u as=0p ps=0u 
M2 vdd a_2_6# Y vdd pmos w=1u l=0.05u
+ ad=0p pd=0u as=0p ps=0u 
M3 gnd A a_2_6# gnd nmos w=1.5u l=0.05u
+ ad=0p pd=0u as=0p ps=0u 
M4 Y a_2_6# gnd gnd nmos w=0.5u l=0.05u
+ ad=0p pd=0u as=0p ps=0u 
M5 gnd a_2_6# Y gnd nmos w=0.5u l=0.05u
+ ad=0p pd=0u as=0p ps=0u 
.ends BUFX4

.SUBCKT CELL30 GND VDD D S R Q CLK
M0  A_2_6# R VDD VDD PMOS W=0.021U L=0.015U
+ AD=0P PD=0U AS=0P PS=0U 
M1  VDD A_10_61# A_2_6# VDD PMOS W=0.021U L=0.015U
+ AD=0P PD=0U AS=0P PS=0U 
M2  A_10_61# A_23_27# VDD VDD PMOS W=0.021U L=0.015U
+ AD=0P PD=0U AS=0P PS=0U 
M3  VDD S A_10_61# VDD PMOS W=0.021U L=0.015U
+ AD=0P PD=0U AS=0P PS=0U 
M4  A_23_27# A_47_71# A_2_6# VDD PMOS W=0.25U L=0.015U
+ AD=0P PD=0U AS=0P PS=0U 
M5  A_57_6# A_47_4# A_23_27# VDD PMOS W=0.25U L=0.015U
+ AD=0P PD=0U AS=0P PS=0U 
M6  VDD D A_57_6# VDD PMOS W=0.021U L=0.015U
+ AD=0P PD=0U AS=0P PS=0U 
M7  VDD A_47_71# A_47_4# VDD PMOS W=0.021U L=0.015U
+ AD=0P PD=0U AS=0P PS=0U 
M8  A_47_71# CLK VDD VDD PMOS W=0.021U L=0.015U
+ AD=0P PD=0U AS=0P PS=0U 
M9  A_105_6# A_47_71# A_10_61# VDD PMOS W=0.25U L=0.015U
+ AD=0P PD=0U AS=0P PS=0U 
M10 A_113_6# A_47_4# A_105_6# VDD PMOS W=0.25U L=0.015U
+ AD=0P PD=0U AS=0P PS=0U 
M11 A_122_6# A_105_6# VDD VDD PMOS W=0.021U L=0.015U
+ AD=0P PD=0U AS=0P PS=0U 
M12 VDD R A_122_6# VDD PMOS W=0.021U L=0.015U
+ AD=0P PD=0U AS=0P PS=0U 
M13 A_113_6# A_122_6# VDD VDD PMOS W=0.021U L=0.015U
+ AD=0P PD=0U AS=0P PS=0U 
M14 VDD S A_113_6# VDD PMOS W=0.021U L=0.015U
+ AD=0P PD=0U AS=0P PS=0U 
M15 VDD A_122_6# Q VDD PMOS W=0.021U L=0.015U
+ AD=0P PD=0U AS=0P PS=0U 
M16 A_10_6# R A_2_6# GND NMOS W=0.021U L=0.015U
+ AD=0P PD=0U AS=0P PS=0U 
M17 GND A_10_61# A_10_6# GND NMOS W=0.021U L=0.015U
+ AD=0P PD=0U AS=0P PS=0U 
M18 A_26_6# A_23_27# GND GND NMOS W=0.021U L=0.015U
+ AD=0P PD=0U AS=0P PS=0U 
M19 A_10_61# S A_26_6# GND NMOS W=0.021U L=0.015U
+ AD=0P PD=0U AS=0P PS=0U 
M20 A_23_27# A_47_4# A_2_6# GND NMOS W=0.25U L=0.015U
+ AD=0P PD=0U AS=0P PS=0U 
M21 A_57_6# A_47_71# A_23_27# GND NMOS W=0.25U L=0.015U
+ AD=0P PD=0U AS=0P PS=0U 
M22 GND D A_57_6# GND NMOS W=0.25U L=0.015U
+ AD=0P PD=0U AS=0P PS=0U 
M23 GND A_47_71# A_47_4# GND NMOS W=0.25U L=0.015U
+ AD=0P PD=0U AS=0P PS=0U 
M24 A_47_71# CLK GND GND NMOS W=0.25U L=0.015U
+ AD=0P PD=0U AS=0P PS=0U 
M25 A_105_6# A_47_4# A_10_61# GND NMOS W=0.25U L=0.015U
+ AD=0P PD=0U AS=0P PS=0U 
M26 A_113_6# A_47_71# A_105_6# GND NMOS W=0.25U L=0.015U
+ AD=0P PD=0U AS=0P PS=0U 
M27 A_130_6# A_105_6# A_122_6# GND NMOS W=0.021U L=0.015U
+ AD=0P PD=0U AS=0P PS=0U 
M28 GND R A_130_6# GND NMOS W=0.021U L=0.015U
+ AD=0P PD=0U AS=0P PS=0U 
M29 A_146_6# A_122_6# GND GND NMOS W=0.021U L=0.015U
+ AD=0P PD=0U AS=0P PS=0U 
M30 A_113_6# S A_146_6# GND NMOS W=0.021U L=0.015U
+ AD=0P PD=0U AS=0P PS=0U 
.ENDS CELL30

.subckt CLKBUF1 A vdd gnd Y
M0 a_9_6# A vdd vdd pmos w=1u l=0.05u
+ ad=0p pd=0u as=0p ps=0u 
M1 vdd A a_9_6# vdd pmos w=1u l=0.05u
+ ad=0p pd=0u as=0p ps=0u 
M2 a_25_6# a_9_6# vdd vdd pmos w=1u l=0.05u
+ ad=0p pd=0u as=0p ps=0u 
M3 vdd a_9_6# a_25_6# vdd pmos w=1u l=0.05u
+ ad=0p pd=0u as=0p ps=0u 
M4 a_41_6# a_25_6# vdd vdd pmos w=1u l=0.05u
+ ad=0p pd=0u as=0p ps=0u 
M5 vdd a_25_6# a_41_6# vdd pmos w=1u l=0.05u
+ ad=0p pd=0u as=0p ps=0u 
M6 Y a_41_6# vdd vdd pmos w=1u l=0.05u
+ ad=0p pd=0u as=0p ps=0u 
M7 vdd a_41_6# Y vdd pmos w=1u l=0.05u
+ ad=0p pd=0u as=0p ps=0u 
M8 a_9_6# A gnd gnd nmos w=0.5u l=0.05u
+ ad=0p pd=0u as=0p ps=0u 
M9 gnd A a_9_6# gnd nmos w=0.5u l=0.05u
+ ad=0p pd=0u as=0p ps=0u 
M10 a_25_6# a_9_6# gnd gnd nmos w=0.5u l=0.05u
+ ad=0p pd=0u as=0p ps=0u 
M11 gnd a_9_6# a_25_6# gnd nmos w=0.5u l=0.05u
+ ad=0p pd=0u as=0p ps=0u 
M12 a_41_6# a_25_6# gnd gnd nmos w=0.5u l=0.05u
+ ad=0p pd=0u as=0p ps=0u 
M13 gnd a_25_6# a_41_6# gnd nmos w=0.5u l=0.05u
+ ad=0p pd=0u as=0p ps=0u 
M14 Y a_41_6# gnd gnd nmos w=0.5u l=0.05u
+ ad=0p pd=0u as=0p ps=0u 
M15 gnd a_41_6# Y gnd nmos w=0.5u l=0.05u
+ ad=0p pd=0u as=0p ps=0u 
.ends CLKBUF1

.subckt CLKBUF2 vdd gnd A Y
M0 a_9_6# A vdd vdd pmos w=1u l=0.05u
+ ad=0p pd=0u as=0p ps=0u 
M1 vdd A a_9_6# vdd pmos w=1u l=0.05u
+ ad=0p pd=0u as=0p ps=0u 
M2 a_25_6# a_9_6# vdd vdd pmos w=1u l=0.05u
+ ad=0p pd=0u as=0p ps=0u 
M3 vdd a_9_6# a_25_6# vdd pmos w=1u l=0.05u
+ ad=0p pd=0u as=0p ps=0u 
M4 a_41_6# a_25_6# vdd vdd pmos w=1u l=0.05u
+ ad=0p pd=0u as=0p ps=0u 
M5 vdd a_25_6# a_41_6# vdd pmos w=1u l=0.05u
+ ad=0p pd=0u as=0p ps=0u 
M6 a_57_6# a_41_6# vdd vdd pmos w=1u l=0.05u
+ ad=0p pd=0u as=0p ps=0u 
M7 vdd a_41_6# a_57_6# vdd pmos w=1u l=0.05u
+ ad=0p pd=0u as=0p ps=0u 
M8 a_73_6# a_57_6# vdd vdd pmos w=1u l=0.05u
+ ad=0p pd=0u as=0p ps=0u 
M9 vdd a_57_6# a_73_6# vdd pmos w=1u l=0.05u
+ ad=0p pd=0u as=0p ps=0u 
M10 Y a_73_6# vdd vdd pmos w=1u l=0.05u
+ ad=0p pd=0u as=0p ps=0u 
M11 vdd a_73_6# Y vdd pmos w=1u l=0.05u
+ ad=0p pd=0u as=0p ps=0u 
M12 a_9_6# A gnd gnd nmos w=0.5u l=0.05u
+ ad=0p pd=0u as=0p ps=0u 
M13 gnd A a_9_6# gnd nmos w=0.5u l=0.05u
+ ad=0p pd=0u as=0p ps=0u 
M14 a_25_6# a_9_6# gnd gnd nmos w=0.5u l=0.05u
+ ad=0p pd=0u as=0p ps=0u 
M15 gnd a_9_6# a_25_6# gnd nmos w=0.5u l=0.05u
+ ad=0p pd=0u as=0p ps=0u 
M16 a_41_6# a_25_6# gnd gnd nmos w=0.5u l=0.05u
+ ad=0p pd=0u as=0p ps=0u 
M17 gnd a_25_6# a_41_6# gnd nmos w=0.5u l=0.05u
+ ad=0p pd=0u as=0p ps=0u 
M18 a_57_6# a_41_6# gnd gnd nmos w=0.5u l=0.05u
+ ad=0p pd=0u as=0p ps=0u 
M19 gnd a_41_6# a_57_6# gnd nmos w=0.5u l=0.05u
+ ad=0p pd=0u as=0p ps=0u 
M20 a_73_6# a_57_6# gnd gnd nmos w=0.5u l=0.05u
+ ad=0p pd=0u as=0p ps=0u 
M21 gnd a_57_6# a_73_6# gnd nmos w=0.5u l=0.05u
+ ad=0p pd=0u as=0p ps=0u 
M22 Y a_73_6# gnd gnd nmos w=0.5u l=0.05u
+ ad=0p pd=0u as=0p ps=0u 
M23 gnd a_73_6# Y gnd nmos w=0.5u l=0.05u
+ ad=0p pd=0u as=0p ps=0u 
.ends CLKBUF2

.subckt CLKBUF3 gnd vdd A Y
M0 a_9_6# A vdd vdd pmos w=1u l=0.05u
+ ad=0p pd=0u as=0p ps=0u 
M1 vdd A a_9_6# vdd pmos w=1u l=0.05u
+ ad=0p pd=0u as=0p ps=0u 
M2 a_25_6# a_9_6# vdd vdd pmos w=1u l=0.05u
+ ad=0p pd=0u as=0p ps=0u 
M3 vdd a_9_6# a_25_6# vdd pmos w=1u l=0.05u
+ ad=0p pd=0u as=0p ps=0u 
M4 a_41_6# a_25_6# vdd vdd pmos w=1u l=0.05u
+ ad=0p pd=0u as=0p ps=0u 
M5 vdd a_25_6# a_41_6# vdd pmos w=1u l=0.05u
+ ad=0p pd=0u as=0p ps=0u 
M6 a_57_6# a_41_6# vdd vdd pmos w=1u l=0.05u
+ ad=0p pd=0u as=0p ps=0u 
M7 vdd a_41_6# a_57_6# vdd pmos w=1u l=0.05u
+ ad=0p pd=0u as=0p ps=0u 
M8 a_73_6# a_57_6# vdd vdd pmos w=1u l=0.05u
+ ad=0p pd=0u as=0p ps=0u 
M9 vdd a_57_6# a_73_6# vdd pmos w=1u l=0.05u
+ ad=0p pd=0u as=0p ps=0u 
M10 a_89_6# a_73_6# vdd vdd pmos w=1u l=0.05u
+ ad=0p pd=0u as=0p ps=0u 
M11 vdd a_73_6# a_89_6# vdd pmos w=1u l=0.05u
+ ad=0p pd=0u as=0p ps=0u 
M12 a_105_6# a_89_6# vdd vdd pmos w=1u l=0.05u
+ ad=0p pd=0u as=0p ps=0u 
M13 vdd a_89_6# a_105_6# vdd pmos w=1u l=0.05u
+ ad=0p pd=0u as=0p ps=0u 
M14 Y a_105_6# vdd vdd pmos w=1u l=0.05u
+ ad=0p pd=0u as=0p ps=0u 
M15 vdd a_105_6# Y vdd pmos w=1u l=0.05u
+ ad=0p pd=0u as=0p ps=0u 
M16 a_9_6# A gnd gnd nmos w=0.5u l=0.05u
+ ad=0p pd=0u as=0p ps=0u 
M17 gnd A a_9_6# gnd nmos w=0.5u l=0.05u
+ ad=0p pd=0u as=0p ps=0u 
M18 a_25_6# a_9_6# gnd gnd nmos w=0.5u l=0.05u
+ ad=0p pd=0u as=0p ps=0u 
M19 gnd a_9_6# a_25_6# gnd nmos w=0.5u l=0.05u
+ ad=0p pd=0u as=0p ps=0u 
M20 a_41_6# a_25_6# gnd gnd nmos w=0.5u l=0.05u
+ ad=0p pd=0u as=0p ps=0u 
M21 gnd a_25_6# a_41_6# gnd nmos w=0.5u l=0.05u
+ ad=0p pd=0u as=0p ps=0u 
M22 a_57_6# a_41_6# gnd gnd nmos w=0.5u l=0.05u
+ ad=0p pd=0u as=0p ps=0u 
M23 gnd a_41_6# a_57_6# gnd nmos w=0.5u l=0.05u
+ ad=0p pd=0u as=0p ps=0u 
M24 a_73_6# a_57_6# gnd gnd nmos w=0.5u l=0.05u
+ ad=0p pd=0u as=0p ps=0u 
M25 gnd a_57_6# a_73_6# gnd nmos w=0.5u l=0.05u
+ ad=0p pd=0u as=0p ps=0u 
M26 a_89_6# a_73_6# gnd gnd nmos w=0.5u l=0.05u
+ ad=0p pd=0u as=0p ps=0u 
M27 gnd a_73_6# a_89_6# gnd nmos w=0.5u l=0.05u
+ ad=0p pd=0u as=0p ps=0u 
M28 a_105_6# a_89_6# gnd gnd nmos w=0.5u l=0.05u
+ ad=0p pd=0u as=0p ps=0u 
M29 gnd a_89_6# a_105_6# gnd nmos w=0.5u l=0.05u
+ ad=0p pd=0u as=0p ps=0u 
M30 Y a_105_6# gnd gnd nmos w=0.5u l=0.05u
+ ad=0p pd=0u as=0p ps=0u 
M31 gnd a_105_6# Y gnd nmos w=0.5u l=0.05u
+ ad=0p pd=0u as=0p ps=0u 
.ends CLKBUF3

.SUBCKT DFFHQX4 CLK D Q VDD GND
MM38 Q NET049 GND GND NMOS W=0.5U L=0.05U
+ AD=0P PD=0U AS=0P PS=0U 
MM24 NET049 SH GND GND NMOS W=0.5U L=0.05U
+ AD=0P PD=0U AS=0P PS=0U 
MM23 CLKB CLKN GND GND NMOS W=0.5U L=0.05U
+ AD=0P PD=0U AS=0P PS=0U 
MM20 CLKN CLK GND GND NMOS W=0.5U L=0.05U
+ AD=0P PD=0U AS=0P PS=0U 
MM17 SH CLKN PD5 GND NMOS W=0.5U L=0.05U
+ AD=0P PD=0U AS=0P PS=0U 
MM16 PD5 SS GND GND NMOS W=0.5U L=0.05U
+ AD=0P PD=0U AS=0P PS=0U 
MM14 SS SH GND GND NMOS W=0.5U L=0.05U
+ AD=0P PD=0U AS=0P PS=0U 
MM12 MS CLKB SH GND NMOS W=0.5U L=0.05U
+ AD=0P PD=0U AS=0P PS=0U 
MM9 MH CLKB PD3 GND NMOS W=0.5U L=0.05U
+ AD=0P PD=0U AS=0P PS=0U 
MM8 PD3 MS GND GND NMOS W=0.5U L=0.05U
+ AD=0P PD=0U AS=0P PS=0U 
MM6 MS MH GND GND NMOS W=0.5U L=0.05U
+ AD=0P PD=0U AS=0P PS=0U 
MM5 PD1 D GND GND NMOS W=0.5U L=0.05U
+ AD=0P PD=0U AS=0P PS=0U 
MM4 MH CLKN PD1 GND NMOS W=0.5U L=0.05U
+ AD=0P PD=0U AS=0P PS=0U 
MM25 NET049 SH VDD VDD PMOS W=0.5U L=0.05U
+ AD=0P PD=0U AS=0P PS=0U 
MM22 CLKB CLKN VDD VDD PMOS W=0.5U L=0.05U
+ AD=0P PD=0U AS=0P PS=0U 
MM21 CLKN CLK VDD VDD PMOS W=0.5U L=0.05U
+ AD=0P PD=0U AS=0P PS=0U 
MM19 PD4 SS VDD VDD PMOS W=0.5U L=0.05U
+ AD=0P PD=0U AS=0P PS=0U 
MM18 SH CLKB PD4 VDD PMOS W=0.5U L=0.05U
+ AD=0P PD=0U AS=0P PS=0U 
MM15 SS SH VDD VDD PMOS W=0.5U L=0.05U
+ AD=0P PD=0U AS=0P PS=0U 
MM13 MS CLKN SH VDD PMOS W=0.5U L=0.05U
+ AD=0P PD=0U AS=0P PS=0U 
MM11 PD2 MS VDD VDD PMOS W=0.5U L=0.05U
+ AD=0P PD=0U AS=0P PS=0U 
MM10 MH CLKN PD2 VDD PMOS W=0.5U L=0.05U
+ AD=0P PD=0U AS=0P PS=0U 
MM7 MS MH VDD VDD PMOS W=0.5U L=0.05U
+ AD=0P PD=0U AS=0P PS=0U 
MM1 MH CLKB PU1 VDD PMOS W=0.5U L=0.05U
+ AD=0P PD=0U AS=0P PS=0U 
MM37 Q NET049 VDD VDD PMOS W=0.5U L=0.05U
+ AD=0P PD=0U AS=0P PS=0U 
MM3 PU1 D VDD VDD PMOS W=0.5U L=0.05U
+ AD=0P PD=0U AS=0P PS=0U 
.ENDS DFFHQX4

.SUBCKT DFFLQX4 CLK D Q VDD GND
MM0 Q QN GND GND NMOS W=0.5U L=0.05U
+ AD=0P PD=0U AS=0P PS=0U 
MM24 QN SH GND GND NMOS W=0.5U L=0.05U
+ AD=0P PD=0U AS=0P PS=0U 
MM17 SH CLKB PD5 GND NMOS W=0.5U L=0.05U
+ AD=0P PD=0U AS=0P PS=0U 
MM16 PD5 SS GND GND NMOS W=0.5U L=0.05U
+ AD=0P PD=0U AS=0P PS=0U 
MM14 SS SH GND GND NMOS W=0.5U L=0.05U
+ AD=0P PD=0U AS=0P PS=0U 
MM12 MS CLKN SH GND NMOS W=0.5U L=0.05U
+ AD=0P PD=0U AS=0P PS=0U 
MM6 MS MH GND GND NMOS W=0.5U L=0.05U
+ AD=0P PD=0U AS=0P PS=0U 
MM9 MH CLKN PD3 GND NMOS W=0.5U L=0.05U
+ AD=0P PD=0U AS=0P PS=0U 
MM8 PD3 MS GND GND NMOS W=0.5U L=0.05U
+ AD=0P PD=0U AS=0P PS=0U 
MM23 CLKB CLKN GND GND NMOS W=0.5U L=0.05U
+ AD=0P PD=0U AS=0P PS=0U 
MM5 PD1 D GND GND NMOS W=0.5U L=0.05U
+ AD=0P PD=0U AS=0P PS=0U 
MM4 MH CLKB PD1 GND NMOS W=0.5U L=0.05U
+ AD=0P PD=0U AS=0P PS=0U 
MM20 CLKN CLK GND GND NMOS W=0.5U L=0.05U
+ AD=0P PD=0U AS=0P PS=0U 
MM2 Q QN VDD VDD PMOS W=0.5U L=0.05U
+ AD=0P PD=0U AS=0P PS=0U 
MM25 QN SH VDD VDD PMOS W=0.5U L=0.05U
+ AD=0P PD=0U AS=0P PS=0U 
MM19 PD4 SS VDD VDD PMOS W=0.5U L=0.05U
+ AD=0P PD=0U AS=0P PS=0U 
MM18 SH CLKN PD4 VDD PMOS W=0.5U L=0.05U
+ AD=0P PD=0U AS=0P PS=0U 
MM15 SS SH VDD VDD PMOS W=0.5U L=0.05U
+ AD=0P PD=0U AS=0P PS=0U 
MM13 MS CLKB SH VDD PMOS W=0.5U L=0.05U
+ AD=0P PD=0U AS=0P PS=0U 
MM7 MS MH VDD VDD PMOS W=0.5U L=0.05U
+ AD=0P PD=0U AS=0P PS=0U 
MM11 PD2 MS VDD VDD PMOS W=0.5U L=0.05U
+ AD=0P PD=0U AS=0P PS=0U 
MM10 MH CLKB PD2 VDD PMOS W=0.5U L=0.05U
+ AD=0P PD=0U AS=0P PS=0U 
MM22 CLKB CLKN VDD VDD PMOS W=0.5U L=0.05U
+ AD=0P PD=0U AS=0P PS=0U 
MM1 MH CLKN PU1 VDD PMOS W=0.5U L=0.05U
+ AD=0P PD=0U AS=0P PS=0U 
MM3 PU1 D VDD VDD PMOS W=0.5U L=0.05U
+ AD=0P PD=0U AS=0P PS=0U 
MM21 CLKN CLK VDD VDD PMOS W=0.5U L=0.05U
+ AD=0P PD=0U AS=0P PS=0U 
.ENDS DFFLQX4

.subckt DFFNEGX1 CLK vdd D gnd Q
M0 vdd CLK a_2_6# vdd pmos w=1u l=0.05u
+ ad=0p pd=0u as=0p ps=0u 
M1 a_17_74# D vdd vdd pmos w=0.5u l=0.05u
+ ad=0p pd=0u as=0p ps=0u 
M2 a_23_6# a_2_6# a_17_74# vdd pmos w=0.5u l=0.05u
+ ad=0p pd=0u as=0p ps=0u 
M3 a_31_74# CLK a_23_6# vdd pmos w=0.5u l=0.05u
+ ad=0p pd=0u as=0p ps=0u 
M4 vdd a_34_4# a_31_74# vdd pmos w=0.5u l=0.05u
+ ad=0p pd=0u as=0p ps=0u 
M5 a_34_4# a_23_6# vdd vdd pmos w=0.5u l=0.05u
+ ad=0p pd=0u as=0p ps=0u 
M6 a_61_74# a_34_4# vdd vdd pmos w=0.5u l=0.05u
+ ad=0p pd=0u as=0p ps=0u 
M7 a_66_6# CLK a_61_74# vdd pmos w=0.5u l=0.05u
+ ad=0p pd=0u as=0p ps=0u 
M8 a_76_84# a_2_6# a_66_6# vdd pmos w=0.25u l=0.05u
+ ad=0p pd=0u as=0p ps=0u 
M9 vdd Q a_76_84# vdd pmos w=0.25u l=0.05u
+ ad=0p pd=0u as=0p ps=0u 
M10 gnd CLK a_2_6# gnd nmos w=0.5u l=0.05u
+ ad=0p pd=0u as=0p ps=0u 
M11 Q a_66_6# vdd vdd pmos w=1u l=0.05u
+ ad=0p pd=0u as=0p ps=0u 
M12 a_17_6# D gnd gnd nmos w=0.25u l=0.05u
+ ad=0p pd=0u as=0p ps=0u 
M13 a_23_6# CLK a_17_6# gnd nmos w=0.25u l=0.05u
+ ad=0p pd=0u as=0p ps=0u 
M14 a_31_6# a_2_6# a_23_6# gnd nmos w=0.25u l=0.05u
+ ad=0p pd=0u as=0p ps=0u 
M15 gnd a_34_4# a_31_6# gnd nmos w=0.25u l=0.05u
+ ad=0p pd=0u as=0p ps=0u 
M16 a_34_4# a_23_6# gnd gnd nmos w=0.25u l=0.05u
+ ad=0p pd=0u as=0p ps=0u 
M17 a_61_6# a_34_4# gnd gnd nmos w=0.25u l=0.05u
+ ad=0p pd=0u as=0p ps=0u 
M18 a_66_6# a_2_6# a_61_6# gnd nmos w=0.25u l=0.05u
+ ad=0p pd=0u as=0p ps=0u 
M19 a_76_6# CLK a_66_6# gnd nmos w=0.25u l=0.05u
+ ad=0p pd=0u as=0p ps=0u 
M20 gnd Q a_76_6# gnd nmos w=0.25u l=0.05u
+ ad=0p pd=0u as=0p ps=0u 
M21 Q a_66_6# gnd gnd nmos w=0.5u l=0.05u
+ ad=0p pd=0u as=0p ps=0u 
.ends DFFNEGX1

.subckt DFFPOSX1 vdd D gnd Q CLK
M0 vdd CLK a_2_6# vdd pmos w=1u l=0.05u
+ ad=0p pd=0u as=0p ps=0u 
M1 a_17_74# D vdd vdd pmos w=0.5u l=0.05u
+ ad=0p pd=0u as=0p ps=0u 
M2 a_22_6# CLK a_17_74# vdd pmos w=0.5u l=0.05u
+ ad=0p pd=0u as=0p ps=0u 
M3 a_31_74# a_2_6# a_22_6# vdd pmos w=0.5u l=0.05u
+ ad=0p pd=0u as=0p ps=0u 
M4 vdd a_34_4# a_31_74# vdd pmos w=0.5u l=0.05u
+ ad=0p pd=0u as=0p ps=0u 
M5 a_34_4# a_22_6# vdd vdd pmos w=0.5u l=0.05u
+ ad=0p pd=0u as=0p ps=0u 
M6 a_61_74# a_34_4# vdd vdd pmos w=0.5u l=0.05u
+ ad=0p pd=0u as=0p ps=0u 
M7 a_66_6# a_2_6# a_61_74# vdd pmos w=0.5u l=0.05u
+ ad=0p pd=0u as=0p ps=0u 
M8 a_76_84# CLK a_66_6# vdd pmos w=0.25u l=0.05u
+ ad=0p pd=0u as=0p ps=0u 
M9 vdd Q a_76_84# vdd pmos w=0.25u l=0.05u
+ ad=0p pd=0u as=0p ps=0u 
M10 gnd CLK a_2_6# gnd nmos w=0.5u l=0.05u
+ ad=0p pd=0u as=0p ps=0u 
M11 Q a_66_6# vdd vdd pmos w=1u l=0.05u
+ ad=0p pd=0u as=0p ps=0u 
M12 a_17_6# D gnd gnd nmos w=0.25u l=0.05u
+ ad=0p pd=0u as=0p ps=0u 
M13 a_22_6# a_2_6# a_17_6# gnd nmos w=0.25u l=0.05u
+ ad=0p pd=0u as=0p ps=0u 
M14 a_31_6# CLK a_22_6# gnd nmos w=0.25u l=0.05u
+ ad=0p pd=0u as=0p ps=0u 
M15 gnd a_34_4# a_31_6# gnd nmos w=0.25u l=0.05u
+ ad=0p pd=0u as=0p ps=0u 
M16 a_34_4# a_22_6# gnd gnd nmos w=0.25u l=0.05u
+ ad=0p pd=0u as=0p ps=0u 
M17 a_61_6# a_34_4# gnd gnd nmos w=0.25u l=0.05u
+ ad=0p pd=0u as=0p ps=0u 
M18 a_66_6# CLK a_61_6# gnd nmos w=0.25u l=0.05u
+ ad=0p pd=0u as=0p ps=0u 
M19 a_76_6# a_2_6# a_66_6# gnd nmos w=0.25u l=0.05u
+ ad=0p pd=0u as=0p ps=0u 
M20 gnd Q a_76_6# gnd nmos w=0.25u l=0.05u
+ ad=0p pd=0u as=0p ps=0u 
M21 Q a_66_6# gnd gnd nmos w=0.5u l=0.05u
+ ad=0p pd=0u as=0p ps=0u 
.ends DFFPOSX1

.subckt DFFSR gnd vdd D S R Q CLK
M0 a_2_6# R vdd vdd pmos w=0.5u l=0.05u
+ ad=0p pd=0u as=0p ps=0u 
M1 vdd a_10_61# a_2_6# vdd pmos w=0.5u l=0.05u
+ ad=0p pd=0u as=0p ps=0u 
M2 a_10_61# a_23_27# vdd vdd pmos w=0.5u l=0.05u
+ ad=0p pd=0u as=0p ps=0u 
M3 vdd S a_10_61# vdd pmos w=0.5u l=0.05u
+ ad=0p pd=0u as=0p ps=0u 
M4 a_23_27# a_47_71# a_2_6# vdd pmos w=0.25u l=0.05u
+ ad=0p pd=0u as=0p ps=0u 
M5 a_57_6# a_47_4# a_23_27# vdd pmos w=0.25u l=0.05u
+ ad=0p pd=0u as=0p ps=0u 
M6 vdd D a_57_6# vdd pmos w=0.5u l=0.05u
+ ad=0p pd=0u as=0p ps=0u 
M7 vdd a_47_71# a_47_4# vdd pmos w=0.5u l=0.05u
+ ad=0p pd=0u as=0p ps=0u 
M8 a_47_71# CLK vdd vdd pmos w=0.5u l=0.05u
+ ad=0p pd=0u as=0p ps=0u 
M9 a_105_6# a_47_71# a_10_61# vdd pmos w=0.25u l=0.05u
+ ad=0p pd=0u as=0p ps=0u 
M10 a_113_6# a_47_4# a_105_6# vdd pmos w=0.25u l=0.05u
+ ad=0p pd=0u as=0p ps=0u 
M11 a_122_6# a_105_6# vdd vdd pmos w=0.5u l=0.05u
+ ad=0p pd=0u as=0p ps=0u 
M12 vdd R a_122_6# vdd pmos w=0.5u l=0.05u
+ ad=0p pd=0u as=0p ps=0u 
M13 a_113_6# a_122_6# vdd vdd pmos w=0.5u l=0.05u
+ ad=0p pd=0u as=0p ps=0u 
M14 vdd S a_113_6# vdd pmos w=0.5u l=0.05u
+ ad=0p pd=0u as=0p ps=0u 
M15 vdd a_122_6# Q vdd pmos w=0.5u l=0.05u
+ ad=0p pd=0u as=0p ps=0u 
M16 a_10_6# R a_2_6# gnd nmos w=0.5u l=0.05u
+ ad=0p pd=0u as=0p ps=0u 
M17 gnd a_10_61# a_10_6# gnd nmos w=0.5u l=0.05u
+ ad=0p pd=0u as=0p ps=0u 
M18 a_26_6# a_23_27# gnd gnd nmos w=0.5u l=0.05u
+ ad=0p pd=0u as=0p ps=0u 
M19 a_10_61# S a_26_6# gnd nmos w=0.5u l=0.05u
+ ad=0p pd=0u as=0p ps=0u 
M20 a_23_27# a_47_4# a_2_6# gnd nmos w=0.25u l=0.05u
+ ad=0p pd=0u as=0p ps=0u 
M21 a_57_6# a_47_71# a_23_27# gnd nmos w=0.25u l=0.05u
+ ad=0p pd=0u as=0p ps=0u 
M22 gnd D a_57_6# gnd nmos w=0.25u l=0.05u
+ ad=0p pd=0u as=0p ps=0u 
M23 gnd a_47_71# a_47_4# gnd nmos w=0.25u l=0.05u
+ ad=0p pd=0u as=0p ps=0u 
M24 a_47_71# CLK gnd gnd nmos w=0.25u l=0.05u
+ ad=0p pd=0u as=0p ps=0u 
M25 a_105_6# a_47_4# a_10_61# gnd nmos w=0.25u l=0.05u
+ ad=0p pd=0u as=0p ps=0u 
M26 a_113_6# a_47_71# a_105_6# gnd nmos w=0.25u l=0.05u
+ ad=0p pd=0u as=0p ps=0u 
M27 a_130_6# a_105_6# a_122_6# gnd nmos w=0.5u l=0.05u
+ ad=0p pd=0u as=0p ps=0u 
M28 gnd R a_130_6# gnd nmos w=0.5u l=0.05u
+ ad=0p pd=0u as=0p ps=0u 
M29 a_146_6# a_122_6# gnd gnd nmos w=0.5u l=0.05u
+ ad=0p pd=0u as=0p ps=0u 
M30 a_113_6# S a_146_6# gnd nmos w=0.5u l=0.05u
+ ad=0p pd=0u as=0p ps=0u 
M31 gnd a_122_6# Q gnd nmos w=0.25u l=0.05u
+ ad=0p pd=0u as=0p ps=0u 
.ends DFFSR

.subckt FAX1 gnd vdd A B C YC YS
M0 vdd A a_2_54# vdd pmos w=1u l=0.05u
+ ad=0p pd=0u as=0p ps=0u 
M1 a_2_54# B vdd vdd pmos w=1u l=0.05u
+ ad=0p pd=0u as=0p ps=0u 
M2 a_25_6# C a_2_54# vdd pmos w=1u l=0.05u
+ ad=0p pd=0u as=0p ps=0u 
M3 a_33_54# B a_25_6# vdd pmos w=1u l=0.05u
+ ad=0p pd=0u as=0p ps=0u 
M4 vdd A a_33_54# vdd pmos w=1u l=0.05u
+ ad=0p pd=0u as=0p ps=0u 
M5 a_46_54# A vdd vdd pmos w=1u l=0.05u
+ ad=0p pd=0u as=0p ps=0u 
M6 vdd B a_46_54# vdd pmos w=3.6u l=0.05u
+ ad=0p pd=0u as=0p ps=0u 
M7 a_46_54# C vdd vdd pmos w=3.6u l=0.05u
+ ad=0p pd=0u as=0p ps=0u 
M8 a_70_6# a_25_6# a_46_54# vdd pmos w=3.6u l=0.05u
+ ad=0p pd=0u as=0p ps=0u 
M9 a_79_46# C a_70_6# vdd pmos w=4.8u l=0.05u
+ ad=0p pd=0u as=0p ps=0u 
M10 a_84_46# B a_79_46# vdd pmos w=4.8u l=0.05u
+ ad=0p pd=0u as=0p ps=0u 
M11 vdd A a_84_46# vdd pmos w=4.8u l=0.05u
+ ad=0p pd=0u as=0p ps=0u 
M12 YS a_70_6# vdd vdd pmos w=0.5u l=0.05u
+ ad=0p pd=0u as=0p ps=0u 
M13 YC a_25_6# vdd vdd pmos w=0.5u l=0.05u
+ ad=0p pd=0u as=0p ps=0u 
M14 gnd A a_2_6# gnd nmos w=0.5u l=0.05u
+ ad=0p pd=0u as=0p ps=0u 
M15 a_2_6# B gnd gnd nmos w=0.5u l=0.05u
+ ad=0p pd=0u as=0p ps=0u 
M16 a_25_6# C a_2_6# gnd nmos w=0.5u l=0.05u
+ ad=0p pd=0u as=0p ps=0u 
M17 a_33_6# B a_25_6# gnd nmos w=0.5u l=0.05u
+ ad=0p pd=0u as=0p ps=0u 
M18 gnd A a_33_6# gnd nmos w=0.5u l=0.05u
+ ad=0p pd=0u as=0p ps=0u 
M19 a_46_6# A gnd gnd nmos w=0.5u l=0.05u
+ ad=0p pd=0u as=0p ps=0u 
M20 gnd B a_46_6# gnd nmos w=0.5u l=0.05u
+ ad=0p pd=0u as=0p ps=0u 
M21 a_46_6# C gnd gnd nmos w=0.5u l=0.05u
+ ad=0p pd=0u as=0p ps=0u 
M22 a_70_6# a_25_6# a_46_6# gnd nmos w=0.5u l=0.05u
+ ad=0p pd=0u as=0p ps=0u 
M23 a_79_6# C a_70_6# gnd nmos w=0.5u l=0.05u
+ ad=0p pd=0u as=0p ps=0u 
M24 a_84_6# B a_79_6# gnd nmos w=0.5u l=0.05u
+ ad=0p pd=0u as=0p ps=0u 
M25 gnd A a_84_6# gnd nmos w=0.5u l=0.05u
+ ad=0p pd=0u as=0p ps=0u 
M26 YS a_70_6# gnd gnd nmos w=0.25u l=0.05u
+ ad=0p pd=0u as=0p ps=0u 
M27 YC a_25_6# gnd gnd nmos w=0.25u l=0.05u
+ ad=0p pd=0u as=0p ps=0u 
.ends FAX1

.SUBCKT FAX1_1 A B CI CON SN VDD GND
MM22 SN CI NET081 VDD PMOS W=0.5U L=0.05U
+ AD=0P PD=0U AS=0P PS=0U 
MM21 NET081 B NET082 VDD PMOS W=0.5U L=0.05U
+ AD=0P PD=0U AS=0P PS=0U 
MM20 NET082 A VDD VDD PMOS W=0.5U L=0.05U
+ AD=0P PD=0U AS=0P PS=0U 
MM15 SN CON NET027 VDD PMOS W=0.5U L=0.05U
+ AD=0P PD=0U AS=0P PS=0U 
MM14 NET027 CI VDD VDD PMOS W=0.5U L=0.05U
+ AD=0P PD=0U AS=0P PS=0U 
MM13 NET027 B VDD VDD PMOS W=0.5U L=0.05U
+ AD=0P PD=0U AS=0P PS=0U 
MM12 NET027 A VDD VDD PMOS W=0.5U L=0.05U
+ AD=0P PD=0U AS=0P PS=0U 
MM5 CON A NET37 VDD PMOS W=0.5U L=0.05U
+ AD=0P PD=0U AS=0P PS=0U 
MM6 NET37 B VDD VDD PMOS W=0.5U L=0.05U
+ AD=0P PD=0U AS=0P PS=0U 
MM2 NET27 B VDD VDD PMOS W=0.5U L=0.05U
+ AD=0P PD=0U AS=0P PS=0U 
MM1 CON CI NET27 VDD PMOS W=0.5U L=0.05U
+ AD=0P PD=0U AS=0P PS=0U 
MM0 NET27 A VDD VDD PMOS W=0.5U L=0.05U
+ AD=0P PD=0U AS=0P PS=0U 
MM25 SN CI NET080 GND NMOS W=0.5U L=0.05U
+ AD=0P PD=0U AS=0P PS=0U 
MM24 NET080 B NET079 GND NMOS W=0.5U L=0.05U
+ AD=0P PD=0U AS=0P PS=0U 
MM23 NET079 A GND GND NMOS W=0.5U L=0.05U
+ AD=0P PD=0U AS=0P PS=0U 
MM19 GND CI NET067 GND NMOS W=0.5U L=0.05U
+ AD=0P PD=0U AS=0P PS=0U 
MM18 GND B NET067 GND NMOS W=0.5U L=0.05U
+ AD=0P PD=0U AS=0P PS=0U 
MM17 GND A NET067 GND NMOS W=0.5U L=0.05U
+ AD=0P PD=0U AS=0P PS=0U 
MM16 NET067 CON SN GND NMOS W=0.5U L=0.05U
+ AD=0P PD=0U AS=0P PS=0U 
MM11 GND B NET25 GND NMOS W=0.5U L=0.05U
+ AD=0P PD=0U AS=0P PS=0U 
MM10 GND B NET36 GND NMOS W=0.5U L=0.05U
+ AD=0P PD=0U AS=0P PS=0U 
MM9 GND A NET25 GND NMOS W=0.5U L=0.05U
+ AD=0P PD=0U AS=0P PS=0U 
MM8 NET36 A CON GND NMOS W=0.5U L=0.05U
+ AD=0P PD=0U AS=0P PS=0U 
MM7 NET25 CI CON GND NMOS W=0.5U L=0.05U
+ AD=0P PD=0U AS=0P PS=0U 
.ENDS FAX1_1

.SUBCKT FULL_ADDER_RCA_1_BIT A_0 B_0 CIN_0 SUM_0 CIN_1 VDD GND
M1 ABAR_0 A_0 VDD VDD PMOS W=0.5U L=0.05U
+ AD=0P PD=0U AS=0P PS=0U 
M2 ABAR_0 A_0 GND GND NMOS W=0.5U L=0.05U
+ AD=0P PD=0U AS=0P PS=0U 
M3 BBAR_0 B_0 VDD VDD PMOS W=0.5U L=0.05U
+ AD=0P PD=0U AS=0P PS=0U 
M4 BBAR_0 B_0 GND GND NMOS W=0.5U L=0.05U
+ AD=0P PD=0U AS=0P PS=0U 
M5 WWW_0 A_0 VDD VDD PMOS W=0.5U L=0.05U
+ AD=0P PD=0U AS=0P PS=0U 
M6 XXX_0 ABAR_0 VDD VDD PMOS W=0.5U L=0.05U
+ AD=0P PD=0U AS=0P PS=0U 
M7 XORAB_0 B_0 XXX_0 VDD PMOS W=0.5U L=0.05U
+ AD=0P PD=0U AS=0P PS=0U 
M8 XORAB_0 BBAR_0 WWW_0 VDD PMOS W=0.5U L=0.05U
+ AD=0P PD=0U AS=0P PS=0U 
M9 XORAB_0 A_0 YYY_0 GND NMOS W=0.5U L=0.05U
+ AD=0P PD=0U AS=0P PS=0U 
M10 XORAB_0 ABAR_0 ZZZ_0 GND NMOS W=0.5U L=0.05U
+ AD=0P PD=0U AS=0P PS=0U 
M11 YYY_0 B_0 GND GND NMOS W=0.5U L=0.05U
+ AD=0P PD=0U AS=0P PS=0U 
M12 ZZZ_0 BBAR_0 GND GND NMOS W=0.5U L=0.05U
+ AD=0P PD=0U AS=0P PS=0U 
M13 XORABBAR_0 XORAB_0 VDD VDD PMOS W=0.5U L=0.05U
+ AD=0P PD=0U AS=0P PS=0U 
M14 XORABBAR_0 XORAB_0 GND GND NMOS W=0.5U L=0.05U
+ AD=0P PD=0U AS=0P PS=0U 
M15 CINBAR_0 CIN_0 VDD VDD PMOS W=0.5U L=0.05U
+ AD=0P PD=0U AS=0P PS=0U 
M16 CINBAR_0 CIN_0 GND GND NMOS W=0.5U L=0.05U
+ AD=0P PD=0U AS=0P PS=0U 
M17 PPP_0 XORAB_0 VDD VDD PMOS W=0.5U L=0.05U
+ AD=0P PD=0U AS=0P PS=0U 
M18 QQQ_0 XORABBAR_0 VDD VDD PMOS W=0.5U L=0.05U
+ AD=0P PD=0U AS=0P PS=0U 
M19 SUM_0 CIN_0 QQQ_0 VDD PMOS W=0.5U L=0.05U
+ AD=0P PD=0U AS=0P PS=0U 
M20 SUM_0 CINBAR_0 PPP_0 VDD PMOS W=0.5U L=0.05U
+ AD=0P PD=0U AS=0P PS=0U 
M21 SUM_0 XORAB_0 RRR_0 GND NMOS W=0.5U L=0.05U
+ AD=0P PD=0U AS=0P PS=0U 
M22 SUM_0 XORABBAR_0 SSS_0 GND NMOS W=0.5U L=0.05U
+ AD=0P PD=0U AS=0P PS=0U 
M23 RRR_0 CIN_0 GND GND NMOS W=0.5U L=0.05U
+ AD=0P PD=0U AS=0P PS=0U 
M24 SSS_0 CINBAR_0 GND GND NMOS W=0.5U L=0.05U
+ AD=0P PD=0U AS=0P PS=0U 
M25 A.B_0 A_0 VDD VDD PMOS W=0.5U L=0.05U
+ AD=0P PD=0U AS=0P PS=0U 
M26 A.B_0 B_0 VDD VDD PMOS W=0.5U L=0.05U
+ AD=0P PD=0U AS=0P PS=0U 
M27 A.B_0 A_0 JJJ_0 GND NMOS W=0.5U L=0.05U
+ AD=0P PD=0U AS=0P PS=0U 
M28 JJJ_0 B_0 GND GND NMOS W=0.5U L=0.05U
+ AD=0P PD=0U AS=0P PS=0U 
M29 A_B.CIN_0 XORAB_0 VDD VDD PMOS W=0.5U L=0.05U
+ AD=0P PD=0U AS=0P PS=0U 
M30 A_B.CIN_0 CIN_0 VDD VDD PMOS W=0.5U L=0.05U
+ AD=0P PD=0U AS=0P PS=0U 
M31 A_B.CIN_0 XORAB_0 KKK_0 GND NMOS W=0.5U L=0.05U
+ AD=0P PD=0U AS=0P PS=0U 
M32 KKK_0 CIN_0 GND GND NMOS W=0.5U L=0.05U
+ AD=0P PD=0U AS=0P PS=0U 
M33 CIN_1 A.B_0 VDD VDD PMOS W=0.5U L=0.05U
+ AD=0P PD=0U AS=0P PS=0U 
M34 CIN_1 A_B.CIN_0 VDD VDD PMOS W=0.5U L=0.05U
+ AD=0P PD=0U AS=0P PS=0U 
M35 CIN_1 A.B_0 LLL_0 GND NMOS W=0.5U L=0.05U
+ AD=0P PD=0U AS=0P PS=0U 
M36 LLL_0 A_B.CIN_0 GND GND NMOS W=0.5U L=0.05U
+ AD=0P PD=0U AS=0P PS=0U 
.ENDS FULL_ADDER_RCA_1_BIT

.subckt HAX1 vdd gnd YC A B YS
M0 vdd A a_2_74# vdd pmos w=0.5u l=0.05u
+ ad=0p pd=0u as=0p ps=0u 
M1 a_2_74# B vdd vdd pmos w=0.5u l=0.05u
+ ad=0p pd=0u as=0p ps=0u 
M2 vdd a_2_74# YC vdd pmos w=0.5u l=0.05u
+ ad=0p pd=0u as=0p ps=0u 
M3 a_41_74# a_2_74# vdd vdd pmos w=0.5u l=0.05u
+ ad=0p pd=0u as=0p ps=0u 
M4 a_49_54# B a_41_74# vdd pmos w=1u l=0.05u
+ ad=0p pd=0u as=0p ps=0u 
M5 vdd A a_49_54# vdd pmos w=1u l=0.05u
+ ad=0p pd=0u as=0p ps=0u 
M6 YS a_41_74# vdd vdd pmos w=0.5u l=0.05u
+ ad=0p pd=0u as=0p ps=0u 
M7 a_9_6# A gnd gnd nmos w=0.5u l=0.05u
+ ad=0p pd=0u as=0p ps=0u 
M8 a_2_74# B a_9_6# gnd nmos w=0.5u l=0.05u
+ ad=0p pd=0u as=0p ps=0u 
M9 gnd a_2_74# YC gnd nmos w=0.25u l=0.05u
+ ad=0p pd=0u as=0p ps=0u 
M10 a_38_6# a_2_74# gnd gnd nmos w=0.5u l=0.05u
+ ad=0p pd=0u as=0p ps=0u 
M11 a_41_74# B a_38_6# gnd nmos w=0.5u l=0.05u
+ ad=0p pd=0u as=0p ps=0u 
M12 a_38_6# A a_41_74# gnd nmos w=0.5u l=0.05u
+ ad=0p pd=0u as=0p ps=0u 
M13 YS a_41_74# gnd gnd nmos w=0.25u l=0.05u
+ ad=0p pd=0u as=0p ps=0u 
.ends HAX1

.SUBCKT ICGX1 CLK ENA GCLK SE VDD GND
MM18 NOS1 SE VDD VDD PMOS W=0.5U L=0.05U
+ AD=0P PD=0U AS=0P PS=0U 
MM16 GCLKN CLK VDD VDD PMOS W=0.5U L=0.05U
+ AD=0P PD=0U AS=0P PS=0U 
MM7 MS MH VDD VDD PMOS W=0.5U L=0.05U
+ AD=0P PD=0U AS=0P PS=0U 
MM11 PD2 MS VDD VDD PMOS W=0.5U L=0.05U
+ AD=0P PD=0U AS=0P PS=0U 
MM10 MH CLKN PD2 VDD PMOS W=0.5U L=0.05U
+ AD=0P PD=0U AS=0P PS=0U 
MM1 MH CLK PU1 VDD PMOS W=0.5U L=0.05U
+ AD=0P PD=0U AS=0P PS=0U 